# generated using pymatgen
data_Na3PS4
_symmetry_space_group_name_H-M   P-42_1c
_cell_length_a   6.92369091
_cell_length_b   6.92369091
_cell_length_c   7.07714131
_cell_angle_alpha   90.00000000
_cell_angle_beta   90.00000000
_cell_angle_gamma   90.00000000
_symmetry_Int_Tables_number   114
_chemical_formula_structural   Na3PS4
_chemical_formula_sum   'Na6 P2 S8'
_cell_volume   339.26043195
_cell_formula_units_Z   2
loop_
 _symmetry_equiv_pos_site_id
 _symmetry_equiv_pos_as_xyz
  1  'x, y, z'
  2  'y, -x, -z'
  3  '-x, -y, z'
  4  '-y, x, -z'
  5  'x+1/2, -y+1/2, -z+1/2'
  6  'y+1/2, x+1/2, z+1/2'
  7  '-x+1/2, y+1/2, -z+1/2'
  8  '-y+1/2, -x+1/2, z+1/2'
loop_
 _atom_type_symbol
 _atom_type_oxidation_number
  Na+  1.0
  P5+  5.0
  S2-  -2.0
loop_
 _atom_site_type_symbol
 _atom_site_label
 _atom_site_symmetry_multiplicity
 _atom_site_fract_x
 _atom_site_fract_y
 _atom_site_fract_z
 _atom_site_occupancy
  Na+  Na0  4  0.00000000  0.50000000  0.41967521  1
  Na+  Na1  2  0.00000000  0.00000000  0.00000000  1
  P5+  P2  2  0.00000000  0.00000000  0.50000000  1
  S2-  S3  8  0.15152850  0.19018953  0.66588040  1
